 16

  O      -0.0000004228      0.0000002180     -2.3432022717
  H      -0.0000002929     -0.7569500560     -2.9290846162
  H      -0.0000008160      0.7569505980     -2.9290844792
  O       0.0000005272      2.3634235782      0.5997486572
  H      -0.7569496738      2.9348869874      0.7289299408
  H       0.7569509802      2.9348865645      0.7289303348
  O      -0.0000003742     -2.3634236656      0.5997483952
  H      -0.7569508171     -2.9348866578      0.7289301056
  H       0.7569498369     -2.9348870951      0.7289295305
  O      -2.3925616267      0.0000003886      0.4943933175
  H      -3.0908928900      0.0000001653     -0.1602556614
  H      -2.8512170629      0.0000007784      1.3345522487
  O       2.3925618060     -0.0000004868      0.4943928200
  H       3.0908929409     -0.0000001937     -0.1602562959
  H       2.8512174070     -0.0000010209      1.3345516612
  Ca       0.0000000459     -0.0000000147      0.0768140635
