13

O          0.15020       -0.00000       -0.05649
C         -0.10729        0.00000        1.31059
C          1.47300       -0.00000       -0.48150
C         -0.87577        0.00000       -0.99686
H         -1.88689       -0.00000       -0.53435
H         -0.81838        0.91451       -1.62719
H         -0.81838       -0.91451       -1.62719
H          1.55777        0.00000       -1.59243
H          1.99564        0.91475       -0.12476
H          1.99564       -0.91475       -0.12476
H         -1.19402        0.00000        1.54588
H          0.31534       -0.91388        1.78292
H          0.31534        0.91388        1.78292
