36

C  -2.776987   2.216280  -1.708948
C  -1.695441   2.515367  -0.687115
O  -1.368793   3.682848  -0.411570
H  -2.942375   1.143463  -1.874161
H  -2.505621   2.689775  -2.661951
C  -0.148801   1.504722   0.997910
C   1.305202   1.829084   0.525293
N  -1.108510   1.436475  -0.104175
O   2.270149   1.110766   0.806988
H  -0.450109   2.360466   1.625051
H  -1.399888   0.493797  -0.366641
C   2.654419   3.509104  -0.678765
N   1.395619   2.995463  -0.162423
H   3.458562   2.846006  -0.339734
H   2.652478   3.536659  -1.779372
H   0.526145   3.530979  -0.292427
H  -3.715610   2.676048  -1.370342
H   2.841284   4.525745  -0.302552
C  -0.217564   0.209376   1.855744
C  -0.609730  -1.054607   1.138551
H  -0.940773   0.382251   2.665746
H   0.773164   0.085937   2.316559
C  -1.866175  -1.631822   1.194179
N  -1.886352  -2.801635   0.454388
C  -0.634293  -3.014667  -0.096362
C   0.198268  -1.927812   0.311865
H  -2.751095  -1.304599   1.733409
C  -0.167520  -4.059145  -0.903882
C   1.543624  -1.909915  -0.108193
C   2.009402  -2.949673  -0.908112
C   1.166014  -4.011035  -1.303282
H  -2.679919  -3.424984   0.368435
H  -0.819161  -4.881280  -1.206226
H   1.564801  -4.809135  -1.931654
H   2.193167  -1.085749   0.190479
H   3.049516  -2.947098  -1.238249
