36

C  -3.225167  -1.111730  -1.184360
C  -2.157989  -0.257180  -1.841434
O  -2.273077   0.141361  -3.013386
H  -2.971036  -1.426005  -0.163788
H  -3.402763  -1.999746  -1.805466
C  -0.004130   0.956207  -1.487233
C   1.051053   0.263189  -2.404474
N  -1.076262   0.046303  -1.073998
O   2.247967   0.192200  -2.103988
H  -0.478090   1.743520  -2.096836
H  -0.988457  -0.351480  -0.139087
C   1.315234  -0.890098  -4.572445
N   0.522380  -0.204120  -3.565168
H   2.365656  -0.855393  -4.261013
H   1.006620  -1.942074  -4.675959
H  -0.489621  -0.074120  -3.701743
H  -4.162651  -0.539208  -1.157065
H   1.211965  -0.396290  -5.549840
C   0.649979   1.598494  -0.244820
C   0.962612   0.643084   0.876145
H  -0.026229   2.381858   0.128585
H   1.568943   2.095404  -0.584033
C   2.041712  -0.215324   0.958990
N   1.981342  -0.929806   2.142574
C   0.859876  -0.552938   2.857576
C   0.189319   0.444498   2.081262
H   2.837588  -0.371195   0.237838
C   0.379191  -0.987108   4.098393
C  -0.995261   1.012133   2.594638
C  -1.475280   0.581939   3.829089
C  -0.796076  -0.407176   4.573364
H   2.659768  -1.622251   2.436756
H   0.904897  -1.748454   4.678007
H  -1.195904  -0.721594   5.538440
H  -1.530349   1.781908   2.034483
H  -2.389558   1.018552   4.234004
