13

O          0.14004       -0.00121       -0.05955
C         -0.08574       -0.00019        1.39105
C          1.53082       -0.00032       -0.52479
C         -0.95771        0.00035       -1.03936
H         -1.89358        0.00042       -0.45909
H         -0.86786        0.91781       -1.64700
H         -0.86887       -0.91626       -1.64841
H          1.49912       -0.00121       -1.62585
H          2.01505        0.91588       -0.14159
H          2.01650       -0.91519       -0.14027
H         -1.17598       -0.00109        1.54495
H          0.37599       -0.91495        1.80399
H          0.37440        0.91596        1.80271
